<?xml version="1.0" encoding="UTF-8"?>

<!-- generated on 2021-11-16 14:43:08 by Eclipse SUMO duarouter Version 1.10.0
<configuration xmlns:xsi="http://www.w3.org/2001/XMLSchema-instance" xsi:noNamespaceSchemaLocation="http://sumo.dlr.de/xsd/duarouterConfiguration.xsd">

    <input>
        <net-file value="InTAS_Crossing.net.xml"/>
        <route-files value="trips.trips.xml"/>
    </input>

    <output>
        <output-file value="InTAS_Random.rou.xml"/>
        <alternatives-output value="InTAS_Random.rou.alt.xml"/>
    </output>

    <time>
        <begin value="0"/>
        <end value="3600"/>
    </time>

    <report>
        <no-warnings value="true"/>
        <ignore-errors value="true"/>
        <no-step-log value="true"/>
    </report>

</configuration>
-->

<routes xmlns:xsi="http://www.w3.org/2001/XMLSchema-instance" xsi:noNamespaceSchemaLocation="http://sumo.dlr.de/xsd/routes_file.xsd">
    <vehicle id="0" depart="0.00">
        <route edges="354967544#1.11 -25188983#0"/>
    </vehicle>
    <vehicle id="1" depart="0.80">
        <route edges="266887590#0 -25188983#0"/>
    </vehicle>
    <vehicle id="3" depart="2.40">
        <route edges="354967545#0.45 -25188983#0"/>
    </vehicle>
    <vehicle id="4" depart="3.20">
        <route edges="266887590#0 -25188983#0"/>
    </vehicle>
    <vehicle id="5" depart="4.00">
        <route edges="25188983#0 141058765#1"/>
    </vehicle>
    <vehicle id="8" depart="6.40">
        <route edges="25188983#0 141058765#1"/>
    </vehicle>
    <vehicle id="9" depart="7.20">
        <route edges="354967545#0.45 -25188983#0"/>
    </vehicle>
    <vehicle id="10" depart="8.00">
        <route edges="354967545#0.45 141058765#1"/>
    </vehicle>
    <vehicle id="11" depart="8.80">
        <route edges="266887590#0 -25188983#0"/>
    </vehicle>
    <vehicle id="12" depart="9.60">
        <route edges="354967545#0.45 -266887590#0"/>
    </vehicle>
    <vehicle id="14" depart="11.20">
        <route edges="354967545#0.45 141058765#1"/>
    </vehicle>
    <vehicle id="15" depart="12.00">
        <route edges="354967545#0.45 141058765#1"/>
    </vehicle>
    <vehicle id="16" depart="12.80">
        <route edges="354967544#1.11 4268816#1"/>
    </vehicle>
    <vehicle id="17" depart="13.60">
        <route edges="266887590#0 141058765#1"/>
    </vehicle>
    <vehicle id="18" depart="14.40">
        <route edges="354967545#0.45 141058765#1"/>
    </vehicle>
    <vehicle id="19" depart="15.20">
        <route edges="354967545#0.45 141058765#1"/>
    </vehicle>
    <vehicle id="20" depart="16.00">
        <route edges="354967544#1.11 -25188983#0"/>
    </vehicle>
    <vehicle id="21" depart="16.80">
        <route edges="25188983#0 -266887590#0"/>
    </vehicle>
    <vehicle id="23" depart="18.40">
        <route edges="25188983#0 -266887590#0"/>
    </vehicle>
    <vehicle id="24" depart="19.20">
        <route edges="354967544#1.11 -266887590#0"/>
    </vehicle>
    <vehicle id="25" depart="20.00">
        <route edges="266887590#0 -25188983#0"/>
    </vehicle>
    <vehicle id="26" depart="20.80">
        <route edges="266887590#0 4268816#1"/>
    </vehicle>
    <vehicle id="28" depart="22.40">
        <route edges="25188983#0 141058765#1"/>
    </vehicle>
    <vehicle id="29" depart="23.20">
        <route edges="25188983#0 -266887590#0"/>
    </vehicle>
    <vehicle id="30" depart="24.00">
        <route edges="354967545#0.45 141058765#1"/>
    </vehicle>
    <vehicle id="35" depart="28.00">
        <route edges="25188983#0 4268816#1"/>
    </vehicle>
    <vehicle id="36" depart="28.80">
        <route edges="354967545#0.45 -266887590#0"/>
    </vehicle>
    <vehicle id="37" depart="29.60">
        <route edges="354967544#1.11 -266887590#0"/>
    </vehicle>
    <vehicle id="38" depart="30.40">
        <route edges="354967545#0.45 -266887590#0"/>
    </vehicle>
    <vehicle id="39" depart="31.20">
        <route edges="266887590#0 -25188983#0"/>
    </vehicle>
    <vehicle id="40" depart="32.00">
        <route edges="354967544#1.11 -266887590#0"/>
    </vehicle>
    <vehicle id="41" depart="32.80">
        <route edges="354967544#1.11 4268816#1"/>
    </vehicle>
    <vehicle id="42" depart="33.60">
        <route edges="266887590#0 -25188983#0"/>
    </vehicle>
    <vehicle id="43" depart="34.40">
        <route edges="354967545#0.45 141058765#1"/>
    </vehicle>
    <vehicle id="45" depart="36.00">
        <route edges="25188983#0 141058765#1"/>
    </vehicle>
    <vehicle id="46" depart="36.80">
        <route edges="354967545#0.45 -266887590#0"/>
    </vehicle>
    <vehicle id="47" depart="37.60">
        <route edges="25188983#0 -266887590#0"/>
    </vehicle>
    <vehicle id="48" depart="38.40">
        <route edges="354967545#0.45 141058765#1"/>
    </vehicle>
    <vehicle id="50" depart="40.00">
        <route edges="25188983#0 141058765#1"/>
    </vehicle>
    <vehicle id="52" depart="41.60">
        <route edges="266887590#0 141058765#1"/>
    </vehicle>
    <vehicle id="53" depart="42.40">
        <route edges="25188983#0 -266887590#0"/>
    </vehicle>
    <vehicle id="54" depart="43.20">
        <route edges="266887590#0 4268816#1"/>
    </vehicle>
    <vehicle id="55" depart="44.00">
        <route edges="354967545#0.45 -266887590#0"/>
    </vehicle>
    <vehicle id="56" depart="44.80">
        <route edges="354967544#1.11 -25188983#0"/>
    </vehicle>
    <vehicle id="58" depart="46.40">
        <route edges="266887590#0 141058765#1"/>
    </vehicle>
    <vehicle id="59" depart="47.20">
        <route edges="354967544#1.11 -25188983#0"/>
    </vehicle>
    <vehicle id="60" depart="48.00">
        <route edges="354967545#0.45 141058765#1"/>
    </vehicle>
    <vehicle id="61" depart="48.80">
        <route edges="354967545#0.45 141058765#1"/>
    </vehicle>
    <vehicle id="62" depart="49.60">
        <route edges="25188983#0 -266887590#0"/>
    </vehicle>
    <vehicle id="63" depart="50.40">
        <route edges="25188983#0 4268816#1"/>
    </vehicle>
    <vehicle id="65" depart="52.00">
        <route edges="266887590#0 -25188983#0"/>
    </vehicle>
    <vehicle id="67" depart="53.60">
        <route edges="25188983#0 -266887590#0"/>
    </vehicle>
    <vehicle id="68" depart="54.40">
        <route edges="25188983#0 4268816#1"/>
    </vehicle>
    <vehicle id="69" depart="55.20">
        <route edges="354967545#0.45 -25188983#0"/>
    </vehicle>
    <vehicle id="70" depart="56.00">
        <route edges="266887590#0 141058765#1"/>
    </vehicle>
    <vehicle id="71" depart="56.80">
        <route edges="266887590#0 4268816#1"/>
    </vehicle>
    <vehicle id="72" depart="57.60">
        <route edges="266887590#0 -25188983#0"/>
    </vehicle>
    <vehicle id="74" depart="59.20">
        <route edges="25188983#0 -266887590#0"/>
    </vehicle>
    <vehicle id="75" depart="60.00">
        <route edges="354967545#0.45 141058765#1"/>
    </vehicle>
    <vehicle id="76" depart="60.80">
        <route edges="266887590#0 141058765#1"/>
    </vehicle>
    <vehicle id="78" depart="62.40">
        <route edges="266887590#0 141058765#1"/>
    </vehicle>
    <vehicle id="80" depart="64.00">
        <route edges="25188983#0 141058765#1"/>
    </vehicle>
    <vehicle id="81" depart="64.80">
        <route edges="25188983#0 4268816#1"/>
    </vehicle>
    <vehicle id="82" depart="65.60">
        <route edges="354967545#0.45 -25188983#0"/>
    </vehicle>
    <vehicle id="83" depart="66.40">
        <route edges="25188983#0 141058765#1"/>
    </vehicle>
    <vehicle id="85" depart="68.00">
        <route edges="354967545#0.45 141058765#1"/>
    </vehicle>
    <vehicle id="86" depart="68.80">
        <route edges="266887590#0 4268816#1"/>
    </vehicle>
    <vehicle id="87" depart="69.60">
        <route edges="354967545#0.45 -25188983#0"/>
    </vehicle>
    <vehicle id="88" depart="70.40">
        <route edges="25188983#0 -266887590#0"/>
    </vehicle>
    <vehicle id="91" depart="72.80">
        <route edges="354967545#0.45 -25188983#0"/>
    </vehicle>
    <vehicle id="93" depart="74.40">
        <route edges="354967545#0.45 -25188983#0"/>
    </vehicle>
    <vehicle id="94" depart="75.20">
        <route edges="25188983#0 -266887590#0"/>
    </vehicle>
    <vehicle id="96" depart="76.80">
        <route edges="25188983#0 4268816#1"/>
    </vehicle>
    <vehicle id="97" depart="77.60">
        <route edges="266887590#0 4268816#1"/>
    </vehicle>
    <vehicle id="98" depart="78.40">
        <route edges="354967544#1.11 -25188983#0"/>
    </vehicle>
    <vehicle id="101" depart="80.80">
        <route edges="354967545#0.45 -25188983#0"/>
    </vehicle>
    <vehicle id="102" depart="81.60">
        <route edges="266887590#0 -25188983#0"/>
    </vehicle>
    <vehicle id="103" depart="82.40">
        <route edges="266887590#0 -25188983#0"/>
    </vehicle>
    <vehicle id="104" depart="83.20">
        <route edges="266887590#0 4268816#1"/>
    </vehicle>
    <vehicle id="105" depart="84.00">
        <route edges="266887590#0 4268816#1"/>
    </vehicle>
    <vehicle id="109" depart="87.20">
        <route edges="25188983#0 -266887590#0"/>
    </vehicle>
    <vehicle id="110" depart="88.00">
        <route edges="354967545#0.45 141058765#1"/>
    </vehicle>
    <vehicle id="112" depart="89.60">
        <route edges="25188983#0 141058765#1"/>
    </vehicle>
    <vehicle id="113" depart="90.40">
        <route edges="354967544#1.11 4268816#1"/>
    </vehicle>
    <vehicle id="114" depart="91.20">
        <route edges="25188983#0 4268816#1"/>
    </vehicle>
    <vehicle id="118" depart="94.40">
        <route edges="354967545#0.45 -25188983#0"/>
    </vehicle>
    <vehicle id="120" depart="96.00">
        <route edges="266887590#0 141058765#1"/>
    </vehicle>
    <vehicle id="121" depart="96.80">
        <route edges="354967544#1.11 4268816#1"/>
    </vehicle>
    <vehicle id="122" depart="97.60">
        <route edges="25188983#0 141058765#1"/>
    </vehicle>
    <vehicle id="123" depart="98.40">
        <route edges="25188983#0 -266887590#0"/>
    </vehicle>
    <vehicle id="124" depart="99.20">
        <route edges="354967544#1.11 -266887590#0"/>
    </vehicle>
    <vehicle id="125" depart="100.00">
        <route edges="266887590#0 4268816#1"/>
    </vehicle>
    <vehicle id="126" depart="100.80">
        <route edges="25188983#0 -266887590#0"/>
    </vehicle>
    <vehicle id="129" depart="103.20">
        <route edges="266887590#0 4268816#1"/>
    </vehicle>
    <vehicle id="131" depart="104.80">
        <route edges="266887590#0 -25188983#0"/>
    </vehicle>
    <vehicle id="132" depart="105.60">
        <route edges="354967545#0.45 141058765#1"/>
    </vehicle>
    <vehicle id="133" depart="106.40">
        <route edges="354967544#1.11 4268816#1"/>
    </vehicle>
    <vehicle id="134" depart="107.20">
        <route edges="354967544#1.11 -25188983#0"/>
    </vehicle>
    <vehicle id="135" depart="108.00">
        <route edges="354967545#0.45 -266887590#0"/>
    </vehicle>
    <vehicle id="136" depart="108.80">
        <route edges="354967544#1.11 4268816#1"/>
    </vehicle>
    <vehicle id="138" depart="110.40">
        <route edges="25188983#0 141058765#1"/>
    </vehicle>
    <vehicle id="139" depart="111.20">
        <route edges="266887590#0 141058765#1"/>
    </vehicle>
    <vehicle id="140" depart="112.00">
        <route edges="354967544#1.11 -25188983#0"/>
    </vehicle>
    <vehicle id="141" depart="112.80">
        <route edges="354967544#1.11 -266887590#0"/>
    </vehicle>
    <vehicle id="142" depart="113.60">
        <route edges="266887590#0 4268816#1"/>
    </vehicle>
    <vehicle id="143" depart="114.40">
        <route edges="354967545#0.45 -25188983#0"/>
    </vehicle>
    <vehicle id="145" depart="116.00">
        <route edges="25188983#0 4268816#1"/>
    </vehicle>
    <vehicle id="146" depart="116.80">
        <route edges="354967544#1.11 -266887590#0"/>
    </vehicle>
    <vehicle id="148" depart="118.40">
        <route edges="266887590#0 -25188983#0"/>
    </vehicle>
    <vehicle id="149" depart="119.20">
        <route edges="25188983#0 4268816#1"/>
    </vehicle>
    <vehicle id="150" depart="120.00">
        <route edges="354967545#0.45 141058765#1"/>
    </vehicle>
    <vehicle id="151" depart="120.80">
        <route edges="354967545#0.45 141058765#1"/>
    </vehicle>
    <vehicle id="153" depart="122.40">
        <route edges="266887590#0 4268816#1"/>
    </vehicle>
    <vehicle id="155" depart="124.00">
        <route edges="354967545#0.45 -25188983#0"/>
    </vehicle>
    <vehicle id="158" depart="126.40">
        <route edges="266887590#0 141058765#1"/>
    </vehicle>
    <vehicle id="159" depart="127.20">
        <route edges="25188983#0 4268816#1"/>
    </vehicle>
    <vehicle id="162" depart="129.60">
        <route edges="25188983#0 141058765#1"/>
    </vehicle>
    <vehicle id="163" depart="130.40">
        <route edges="266887590#0 4268816#1"/>
    </vehicle>
    <vehicle id="165" depart="132.00">
        <route edges="354967545#0.45 -266887590#0"/>
    </vehicle>
    <vehicle id="166" depart="132.80">
        <route edges="354967545#0.45 -25188983#0"/>
    </vehicle>
    <vehicle id="168" depart="134.40">
        <route edges="25188983#0 4268816#1"/>
    </vehicle>
    <vehicle id="170" depart="136.00">
        <route edges="354967545#0.45 -25188983#0"/>
    </vehicle>
    <vehicle id="172" depart="137.60">
        <route edges="266887590#0 4268816#1"/>
    </vehicle>
    <vehicle id="173" depart="138.40">
        <route edges="354967545#0.45 -266887590#0"/>
    </vehicle>
    <vehicle id="174" depart="139.20">
        <route edges="354967544#1.11 -266887590#0"/>
    </vehicle>
    <vehicle id="175" depart="140.00">
        <route edges="354967545#0.45 141058765#1"/>
    </vehicle>
    <vehicle id="176" depart="140.80">
        <route edges="354967545#0.45 -25188983#0"/>
    </vehicle>
    <vehicle id="177" depart="141.60">
        <route edges="354967545#0.45 -25188983#0"/>
    </vehicle>
    <vehicle id="178" depart="142.40">
        <route edges="354967545#0.45 -266887590#0"/>
    </vehicle>
    <vehicle id="179" depart="143.20">
        <route edges="25188983#0 -266887590#0"/>
    </vehicle>
    <vehicle id="180" depart="144.00">
        <route edges="354967544#1.11 -266887590#0"/>
    </vehicle>
    <vehicle id="182" depart="145.60">
        <route edges="266887590#0 141058765#1"/>
    </vehicle>
    <vehicle id="183" depart="146.40">
        <route edges="266887590#0 141058765#1"/>
    </vehicle>
    <vehicle id="184" depart="147.20">
        <route edges="25188983#0 4268816#1"/>
    </vehicle>
    <vehicle id="187" depart="149.60">
        <route edges="266887590#0 -25188983#0"/>
    </vehicle>
    <vehicle id="188" depart="150.40">
        <route edges="354967544#1.11 -266887590#0"/>
    </vehicle>
    <vehicle id="189" depart="151.20">
        <route edges="266887590#0 4268816#1"/>
    </vehicle>
    <vehicle id="190" depart="152.00">
        <route edges="354967544#1.11 -266887590#0"/>
    </vehicle>
    <vehicle id="193" depart="154.40">
        <route edges="25188983#0 -266887590#0"/>
    </vehicle>
    <vehicle id="194" depart="155.20">
        <route edges="354967545#0.45 141058765#1"/>
    </vehicle>
    <vehicle id="195" depart="156.00">
        <route edges="354967545#0.45 141058765#1"/>
    </vehicle>
    <vehicle id="196" depart="156.80">
        <route edges="266887590#0 141058765#1"/>
    </vehicle>
    <vehicle id="197" depart="157.60">
        <route edges="25188983#0 -266887590#0"/>
    </vehicle>
    <vehicle id="198" depart="158.40">
        <route edges="266887590#0 141058765#1"/>
    </vehicle>
    <vehicle id="199" depart="159.20">
        <route edges="354967544#1.11 -266887590#0"/>
    </vehicle>
    <vehicle id="200" depart="160.00">
        <route edges="266887590#0 -25188983#0"/>
    </vehicle>
    <vehicle id="201" depart="160.80">
        <route edges="266887590#0 4268816#1"/>
    </vehicle>
    <vehicle id="202" depart="161.60">
        <route edges="354967545#0.45 -25188983#0"/>
    </vehicle>
    <vehicle id="203" depart="162.40">
        <route edges="25188983#0 141058765#1"/>
    </vehicle>
    <vehicle id="204" depart="163.20">
        <route edges="354967544#1.11 -266887590#0"/>
    </vehicle>
    <vehicle id="206" depart="164.80">
        <route edges="354967544#1.11 -25188983#0"/>
    </vehicle>
    <vehicle id="208" depart="166.40">
        <route edges="25188983#0 -266887590#0"/>
    </vehicle>
    <vehicle id="209" depart="167.20">
        <route edges="354967545#0.45 -25188983#0"/>
    </vehicle>
    <vehicle id="210" depart="168.00">
        <route edges="266887590#0 141058765#1"/>
    </vehicle>
    <vehicle id="211" depart="168.80">
        <route edges="25188983#0 141058765#1"/>
    </vehicle>
    <vehicle id="212" depart="169.60">
        <route edges="266887590#0 -25188983#0"/>
    </vehicle>
    <vehicle id="213" depart="170.40">
        <route edges="354967544#1.11 -25188983#0"/>
    </vehicle>
    <vehicle id="215" depart="172.00">
        <route edges="25188983#0 -266887590#0"/>
    </vehicle>
    <vehicle id="216" depart="172.80">
        <route edges="25188983#0 4268816#1"/>
    </vehicle>
    <vehicle id="217" depart="173.60">
        <route edges="354967544#1.11 -25188983#0"/>
    </vehicle>
    <vehicle id="218" depart="174.40">
        <route edges="25188983#0 4268816#1"/>
    </vehicle>
    <vehicle id="219" depart="175.20">
        <route edges="266887590#0 4268816#1"/>
    </vehicle>
    <vehicle id="220" depart="176.00">
        <route edges="354967544#1.11 4268816#1"/>
    </vehicle>
    <vehicle id="221" depart="176.80">
        <route edges="354967544#1.11 4268816#1"/>
    </vehicle>
    <vehicle id="222" depart="177.60">
        <route edges="354967545#0.45 141058765#1"/>
    </vehicle>
    <vehicle id="224" depart="179.20">
        <route edges="354967545#0.45 141058765#1"/>
    </vehicle>
    <vehicle id="225" depart="180.00">
        <route edges="354967545#0.45 141058765#1"/>
    </vehicle>
    <vehicle id="227" depart="181.60">
        <route edges="25188983#0 141058765#1"/>
    </vehicle>
    <vehicle id="228" depart="182.40">
        <route edges="354967545#0.45 141058765#1"/>
    </vehicle>
    <vehicle id="229" depart="183.20">
        <route edges="354967544#1.11 -266887590#0"/>
    </vehicle>
    <vehicle id="230" depart="184.00">
        <route edges="25188983#0 -266887590#0"/>
    </vehicle>
    <vehicle id="232" depart="185.60">
        <route edges="354967544#1.11 -25188983#0"/>
    </vehicle>
    <vehicle id="233" depart="186.40">
        <route edges="25188983#0 141058765#1"/>
    </vehicle>
    <vehicle id="234" depart="187.20">
        <route edges="354967544#1.11 -25188983#0"/>
    </vehicle>
    <vehicle id="235" depart="188.00">
        <route edges="266887590#0 141058765#1"/>
    </vehicle>
    <vehicle id="236" depart="188.80">
        <route edges="266887590#0 -25188983#0"/>
    </vehicle>
    <vehicle id="237" depart="189.60">
        <route edges="266887590#0 4268816#1"/>
    </vehicle>
    <vehicle id="240" depart="192.00">
        <route edges="266887590#0 -25188983#0"/>
    </vehicle>
    <vehicle id="241" depart="192.80">
        <route edges="266887590#0 4268816#1"/>
    </vehicle>
    <vehicle id="243" depart="194.40">
        <route edges="266887590#0 141058765#1"/>
    </vehicle>
    <vehicle id="246" depart="196.80">
        <route edges="266887590#0 -25188983#0"/>
    </vehicle>
    <vehicle id="247" depart="197.60">
        <route edges="266887590#0 141058765#1"/>
    </vehicle>
    <vehicle id="248" depart="198.40">
        <route edges="266887590#0 -25188983#0"/>
    </vehicle>
    <vehicle id="249" depart="199.20">
        <route edges="266887590#0 -25188983#0"/>
    </vehicle>
    <vehicle id="250" depart="200.00">
        <route edges="354967544#1.11 -25188983#0"/>
    </vehicle>
    <vehicle id="251" depart="200.80">
        <route edges="266887590#0 141058765#1"/>
    </vehicle>
    <vehicle id="252" depart="201.60">
        <route edges="25188983#0 141058765#1"/>
    </vehicle>
    <vehicle id="253" depart="202.40">
        <route edges="25188983#0 -266887590#0"/>
    </vehicle>
    <vehicle id="254" depart="203.20">
        <route edges="25188983#0 -266887590#0"/>
    </vehicle>
    <vehicle id="255" depart="204.00">
        <route edges="25188983#0 -266887590#0"/>
    </vehicle>
    <vehicle id="256" depart="204.80">
        <route edges="354967545#0.45 -266887590#0"/>
    </vehicle>
    <vehicle id="258" depart="206.40">
        <route edges="266887590#0 -25188983#0"/>
    </vehicle>
    <vehicle id="259" depart="207.20">
        <route edges="25188983#0 141058765#1"/>
    </vehicle>
    <vehicle id="260" depart="208.00">
        <route edges="354967545#0.45 -266887590#0"/>
    </vehicle>
    <vehicle id="261" depart="208.80">
        <route edges="354967544#1.11 4268816#1"/>
    </vehicle>
    <vehicle id="262" depart="209.60">
        <route edges="354967544#1.11 4268816#1"/>
    </vehicle>
    <vehicle id="263" depart="210.40">
        <route edges="354967545#0.45 -25188983#0"/>
    </vehicle>
    <vehicle id="265" depart="212.00">
        <route edges="25188983#0 141058765#1"/>
    </vehicle>
    <vehicle id="266" depart="212.80">
        <route edges="354967544#1.11 -25188983#0"/>
    </vehicle>
    <vehicle id="267" depart="213.60">
        <route edges="354967544#1.11 4268816#1"/>
    </vehicle>
    <vehicle id="268" depart="214.40">
        <route edges="25188983#0 141058765#1"/>
    </vehicle>
    <vehicle id="269" depart="215.20">
        <route edges="354967544#1.11 -25188983#0"/>
    </vehicle>
    <vehicle id="272" depart="217.60">
        <route edges="266887590#0 141058765#1"/>
    </vehicle>
    <vehicle id="273" depart="218.40">
        <route edges="354967545#0.45 -266887590#0"/>
    </vehicle>
    <vehicle id="274" depart="219.20">
        <route edges="354967544#1.11 -25188983#0"/>
    </vehicle>
    <vehicle id="276" depart="220.80">
        <route edges="25188983#0 4268816#1"/>
    </vehicle>
    <vehicle id="277" depart="221.60">
        <route edges="354967545#0.45 141058765#1"/>
    </vehicle>
    <vehicle id="278" depart="222.40">
        <route edges="25188983#0 4268816#1"/>
    </vehicle>
    <vehicle id="279" depart="223.20">
        <route edges="354967545#0.45 -266887590#0"/>
    </vehicle>
    <vehicle id="281" depart="224.80">
        <route edges="354967544#1.11 -266887590#0"/>
    </vehicle>
    <vehicle id="283" depart="226.40">
        <route edges="25188983#0 4268816#1"/>
    </vehicle>
    <vehicle id="284" depart="227.20">
        <route edges="354967544#1.11 4268816#1"/>
    </vehicle>
    <vehicle id="285" depart="228.00">
        <route edges="354967544#1.11 -266887590#0"/>
    </vehicle>
    <vehicle id="286" depart="228.80">
        <route edges="354967544#1.11 4268816#1"/>
    </vehicle>
    <vehicle id="287" depart="229.60">
        <route edges="266887590#0 4268816#1"/>
    </vehicle>
    <vehicle id="288" depart="230.40">
        <route edges="354967544#1.11 -266887590#0"/>
    </vehicle>
    <vehicle id="289" depart="231.20">
        <route edges="266887590#0 141058765#1"/>
    </vehicle>
    <vehicle id="290" depart="232.00">
        <route edges="266887590#0 4268816#1"/>
    </vehicle>
    <vehicle id="291" depart="232.80">
        <route edges="354967545#0.45 -25188983#0"/>
    </vehicle>
    <vehicle id="292" depart="233.60">
        <route edges="354967545#0.45 -25188983#0"/>
    </vehicle>
    <vehicle id="293" depart="234.40">
        <route edges="266887590#0 141058765#1"/>
    </vehicle>
    <vehicle id="294" depart="235.20">
        <route edges="266887590#0 -25188983#0"/>
    </vehicle>
    <vehicle id="295" depart="236.00">
        <route edges="354967545#0.45 -25188983#0"/>
    </vehicle>
    <vehicle id="296" depart="236.80">
        <route edges="25188983#0 4268816#1"/>
    </vehicle>
    <vehicle id="297" depart="237.60">
        <route edges="266887590#0 4268816#1"/>
    </vehicle>
    <vehicle id="298" depart="238.40">
        <route edges="354967544#1.11 -266887590#0"/>
    </vehicle>
    <vehicle id="299" depart="239.20">
        <route edges="25188983#0 4268816#1"/>
    </vehicle>
    <vehicle id="300" depart="240.00">
        <route edges="25188983#0 141058765#1"/>
    </vehicle>
    <vehicle id="301" depart="240.80">
        <route edges="266887590#0 4268816#1"/>
    </vehicle>
    <vehicle id="303" depart="242.40">
        <route edges="266887590#0 4268816#1"/>
    </vehicle>
    <vehicle id="305" depart="244.00">
        <route edges="354967544#1.11 -266887590#0"/>
    </vehicle>
    <vehicle id="306" depart="244.80">
        <route edges="354967544#1.11 -266887590#0"/>
    </vehicle>
    <vehicle id="307" depart="245.60">
        <route edges="354967544#1.11 -266887590#0"/>
    </vehicle>
    <vehicle id="308" depart="246.40">
        <route edges="354967544#1.11 -266887590#0"/>
    </vehicle>
    <vehicle id="309" depart="247.20">
        <route edges="354967544#1.11 -266887590#0"/>
    </vehicle>
    <vehicle id="310" depart="248.00">
        <route edges="266887590#0 -25188983#0"/>
    </vehicle>
    <vehicle id="312" depart="249.60">
        <route edges="354967544#1.11 4268816#1"/>
    </vehicle>
    <vehicle id="314" depart="251.20">
        <route edges="266887590#0 141058765#1"/>
    </vehicle>
    <vehicle id="315" depart="252.00">
        <route edges="354967545#0.45 141058765#1"/>
    </vehicle>
    <vehicle id="316" depart="252.80">
        <route edges="266887590#0 -25188983#0"/>
    </vehicle>
    <vehicle id="319" depart="255.20">
        <route edges="354967544#1.11 -266887590#0"/>
    </vehicle>
    <vehicle id="320" depart="256.00">
        <route edges="354967545#0.45 141058765#1"/>
    </vehicle>
    <vehicle id="321" depart="256.80">
        <route edges="354967544#1.11 -25188983#0"/>
    </vehicle>
    <vehicle id="322" depart="257.60">
        <route edges="354967545#0.45 -266887590#0"/>
    </vehicle>
    <vehicle id="323" depart="258.40">
        <route edges="354967545#0.45 141058765#1"/>
    </vehicle>
    <vehicle id="326" depart="260.80">
        <route edges="354967545#0.45 -266887590#0"/>
    </vehicle>
    <vehicle id="327" depart="261.60">
        <route edges="354967545#0.45 -266887590#0"/>
    </vehicle>
    <vehicle id="328" depart="262.40">
        <route edges="25188983#0 141058765#1"/>
    </vehicle>
    <vehicle id="330" depart="264.00">
        <route edges="354967544#1.11 -266887590#0"/>
    </vehicle>
    <vehicle id="331" depart="264.80">
        <route edges="354967545#0.45 -25188983#0"/>
    </vehicle>
    <vehicle id="332" depart="265.60">
        <route edges="354967545#0.45 141058765#1"/>
    </vehicle>
    <vehicle id="333" depart="266.40">
        <route edges="354967545#0.45 -25188983#0"/>
    </vehicle>
    <vehicle id="334" depart="267.20">
        <route edges="354967544#1.11 -266887590#0"/>
    </vehicle>
    <vehicle id="335" depart="268.00">
        <route edges="266887590#0 4268816#1"/>
    </vehicle>
    <vehicle id="336" depart="268.80">
        <route edges="354967545#0.45 -266887590#0"/>
    </vehicle>
    <vehicle id="338" depart="270.40">
        <route edges="354967544#1.11 4268816#1"/>
    </vehicle>
    <vehicle id="340" depart="272.00">
        <route edges="354967544#1.11 -25188983#0"/>
    </vehicle>
    <vehicle id="342" depart="273.60">
        <route edges="25188983#0 -266887590#0"/>
    </vehicle>
    <vehicle id="343" depart="274.40">
        <route edges="354967544#1.11 -266887590#0"/>
    </vehicle>
    <vehicle id="344" depart="275.20">
        <route edges="25188983#0 141058765#1"/>
    </vehicle>
    <vehicle id="345" depart="276.00">
        <route edges="354967544#1.11 -266887590#0"/>
    </vehicle>
    <vehicle id="346" depart="276.80">
        <route edges="354967544#1.11 4268816#1"/>
    </vehicle>
    <vehicle id="347" depart="277.60">
        <route edges="354967545#0.45 141058765#1"/>
    </vehicle>
    <vehicle id="348" depart="278.40">
        <route edges="354967544#1.11 4268816#1"/>
    </vehicle>
    <vehicle id="349" depart="279.20">
        <route edges="266887590#0 141058765#1"/>
    </vehicle>
    <vehicle id="350" depart="280.00">
        <route edges="354967544#1.11 4268816#1"/>
    </vehicle>
    <vehicle id="351" depart="280.80">
        <route edges="354967545#0.45 -25188983#0"/>
    </vehicle>
    <vehicle id="352" depart="281.60">
        <route edges="25188983#0 -266887590#0"/>
    </vehicle>
    <vehicle id="354" depart="283.20">
        <route edges="266887590#0 -25188983#0"/>
    </vehicle>
    <vehicle id="356" depart="284.80">
        <route edges="354967545#0.45 141058765#1"/>
    </vehicle>
    <vehicle id="357" depart="285.60">
        <route edges="266887590#0 -25188983#0"/>
    </vehicle>
    <vehicle id="358" depart="286.40">
        <route edges="25188983#0 -266887590#0"/>
    </vehicle>
    <vehicle id="360" depart="288.00">
        <route edges="25188983#0 4268816#1"/>
    </vehicle>
    <vehicle id="361" depart="288.80">
        <route edges="354967545#0.45 141058765#1"/>
    </vehicle>
    <vehicle id="363" depart="290.40">
        <route edges="354967544#1.11 -266887590#0"/>
    </vehicle>
    <vehicle id="364" depart="291.20">
        <route edges="25188983#0 4268816#1"/>
    </vehicle>
    <vehicle id="365" depart="292.00">
        <route edges="266887590#0 141058765#1"/>
    </vehicle>
    <vehicle id="366" depart="292.80">
        <route edges="354967545#0.45 -25188983#0"/>
    </vehicle>
    <vehicle id="368" depart="294.40">
        <route edges="266887590#0 -25188983#0"/>
    </vehicle>
    <vehicle id="370" depart="296.00">
        <route edges="354967544#1.11 4268816#1"/>
    </vehicle>
    <vehicle id="371" depart="296.80">
        <route edges="266887590#0 141058765#1"/>
    </vehicle>