<?xml version="1.0" encoding="UTF-8"?>
<!-- generated on 2021-11-16 17:00:04.267613 by $Id$ UNKNOWN
  options: -n InTAS_Crossing.net.xml -b 0 -e 3600 -o /home/lobo/Repository/InTAS_VAM/InTAS_Crossing_Pedestrians.rou.xml <doubleminus>pedestrians -p 0.8 -s 111315
-->
<routes xmlns:xsi="http://www.w3.org/2001/XMLSchema-instance" xsi:noNamespaceSchemaLocation="http://sumo.dlr.de/xsd/routes_file.xsd">
    <person id="0" depart="0.00">
        <walk from="-25188983#0" to="141058765#1"/>
    </person>
    <person id="1" depart="0.80">
        <walk from="-25188983#0" to="354967545#0.45"/>
    </person>
    <person id="2" depart="1.60">
        <walk from="-25188983#0" to="4268816#1"/>
    </person>
    <person id="3" depart="2.40">
        <walk from="4268816#1" to="-266887590#0"/>
    </person>
    <person id="4" depart="3.20">
        <walk from="354967544#1.11" to="141058765#1"/>
    </person>
    <person id="5" depart="4.00">
        <walk from="354967545#0.45" to="266887590#0"/>
    </person>
    <person id="6" depart="4.80">
        <walk from="-266887590#0" to="354967544#1.11"/>
    </person>
    <person id="7" depart="5.60">
        <walk from="4268816#1" to="266887590#0"/>
    </person>
    <person id="8" depart="6.40">
        <walk from="4268816#1" to="266887590#0"/>
    </person>
    <person id="9" depart="7.20">
        <walk from="141058765#1" to="4268816#1"/>
    </person>
    <person id="10" depart="8.00">
        <walk from="25188983#0" to="25188983#0"/>
    </person>
    <person id="11" depart="8.80">
        <walk from="4268816#1" to="354967544#1.11"/>
    </person>
    <person id="12" depart="9.60">
        <walk from="-266887590#0" to="-266887590#0"/>
    </person>
    <person id="13" depart="10.40">
        <walk from="266887590#0" to="354967544#1.11"/>
    </person>
    <person id="14" depart="11.20">
        <walk from="4268816#1" to="141058765#1"/>
    </person>
    <person id="15" depart="12.00">
        <walk from="4268816#1" to="4268816#1"/>
    </person>
    <person id="16" depart="12.80">
        <walk from="354967544#1.11" to="4268816#1"/>
    </person>
    <person id="17" depart="13.60">
        <walk from="266887590#0" to="-25188983#0"/>
    </person>
    <person id="18" depart="14.40">
        <walk from="266887590#0" to="-25188983#0"/>
    </person>
    <person id="19" depart="15.20">
        <walk from="266887590#0" to="354967544#1.11"/>
    </person>
    <person id="20" depart="16.00">
        <walk from="25188983#0" to="-266887590#0"/>
    </person>
    <person id="21" depart="16.80">
        <walk from="141058765#1" to="354967545#0.45"/>
    </person>
    <person id="22" depart="17.60">
        <walk from="-266887590#0" to="-25188983#0"/>
    </person>
    <person id="23" depart="18.40">
        <walk from="25188983#0" to="4268816#1"/>
    </person>
    <person id="24" depart="19.20">
        <walk from="25188983#0" to="141058765#1"/>
    </person>
    <person id="25" depart="20.00">
        <walk from="354967544#1.11" to="141058765#1"/>
    </person>
    <person id="26" depart="20.80">
        <walk from="266887590#0" to="-266887590#0"/>
    </person>
    <person id="27" depart="21.60">
        <walk from="-25188983#0" to="-266887590#0"/>
    </person>
    <person id="28" depart="22.40">
        <walk from="25188983#0" to="266887590#0"/>
    </person>
    <person id="29" depart="23.20">
        <walk from="141058765#1" to="266887590#0"/>
    </person>
    <person id="30" depart="24.00">
        <walk from="266887590#0" to="-266887590#0"/>
    </person>
    <person id="31" depart="24.80">
        <walk from="25188983#0" to="354967545#0.45"/>
    </person>
    <person id="32" depart="25.60">
        <walk from="354967544#1.11" to="354967545#0.45"/>
    </person>
    <person id="33" depart="26.40">
        <walk from="266887590#0" to="354967544#1.11"/>
    </person>
    <person id="34" depart="27.20">
        <walk from="266887590#0" to="354967545#0.45"/>
    </person>
    <person id="35" depart="28.00">
        <walk from="141058765#1" to="-266887590#0"/>
    </person>
    <person id="36" depart="28.80">
        <walk from="4268816#1" to="354967544#1.11"/>
    </person>
    <person id="37" depart="29.60">
        <walk from="266887590#0" to="141058765#1"/>
    </person>
    <person id="38" depart="30.40">
        <walk from="354967544#1.11" to="-266887590#0"/>
    </person>
    <person id="39" depart="31.20">
        <walk from="25188983#0" to="141058765#1"/>
    </person>
    <person id="40" depart="32.00">
        <walk from="25188983#0" to="266887590#0"/>
    </person>
    <person id="41" depart="32.80">
        <walk from="-266887590#0" to="4268816#1"/>
    </person>
    <person id="42" depart="33.60">
        <walk from="266887590#0" to="266887590#0"/>
    </person>
    <person id="43" depart="34.40">
        <walk from="-266887590#0" to="266887590#0"/>
    </person>
    <person id="44" depart="35.20">
        <walk from="141058765#1" to="354967545#0.45"/>
    </person>
    <person id="45" depart="36.00">
        <walk from="25188983#0" to="4268816#1"/>
    </person>
    <person id="46" depart="36.80">
        <walk from="354967545#0.45" to="141058765#1"/>
    </person>
    <person id="47" depart="37.60">
        <walk from="-25188983#0" to="354967545#0.45"/>
    </person>
    <person id="48" depart="38.40">
        <walk from="354967545#0.45" to="-25188983#0"/>
    </person>
    <person id="49" depart="39.20">
        <walk from="266887590#0" to="-25188983#0"/>
    </person>
    <person id="50" depart="40.00">
        <walk from="354967544#1.11" to="25188983#0"/>
    </person>
    <person id="51" depart="40.80">
        <walk from="-266887590#0" to="354967544#1.11"/>
    </person>
    <person id="52" depart="41.60">
        <walk from="-266887590#0" to="-25188983#0"/>
    </person>
    <person id="53" depart="42.40">
        <walk from="25188983#0" to="-25188983#0"/>
    </person>
    <person id="54" depart="43.20">
        <walk from="4268816#1" to="-266887590#0"/>
    </person>
    <person id="55" depart="44.00">
        <walk from="266887590#0" to="354967544#1.11"/>
    </person>
    <person id="56" depart="44.80">
        <walk from="-266887590#0" to="-266887590#0"/>
    </person>
    <person id="57" depart="45.60">
        <walk from="354967544#1.11" to="354967544#1.11"/>
    </person>
    <person id="58" depart="46.40">
        <walk from="141058765#1" to="354967544#1.11"/>
    </person>
    <person id="59" depart="47.20">
        <walk from="354967545#0.45" to="266887590#0"/>
    </person>
    <person id="60" depart="48.00">
        <walk from="141058765#1" to="354967544#1.11"/>
    </person>
    <person id="61" depart="48.80">
        <walk from="141058765#1" to="141058765#1"/>
    </person>
    <person id="62" depart="49.60">
        <walk from="25188983#0" to="-266887590#0"/>
    </person>
    <person id="63" depart="50.40">
        <walk from="354967544#1.11" to="266887590#0"/>
    </person>
    <person id="64" depart="51.20">
        <walk from="25188983#0" to="-266887590#0"/>
    </person>
    <person id="65" depart="52.00">
        <walk from="354967544#1.11" to="-266887590#0"/>
    </person>
    <person id="66" depart="52.80">
        <walk from="-25188983#0" to="141058765#1"/>
    </person>
    <person id="67" depart="53.60">
        <walk from="-266887590#0" to="354967544#1.11"/>
    </person>
    <person id="68" depart="54.40">
        <walk from="25188983#0" to="4268816#1"/>
    </person>
    <person id="69" depart="55.20">
        <walk from="-266887590#0" to="-25188983#0"/>
    </person>
    <person id="70" depart="56.00">
        <walk from="25188983#0" to="354967544#1.11"/>
    </person>
    <person id="71" depart="56.80">
        <walk from="266887590#0" to="25188983#0"/>
    </person>
    <person id="72" depart="57.60">
        <walk from="-266887590#0" to="25188983#0"/>
    </person>
    <person id="73" depart="58.40">
        <walk from="266887590#0" to="25188983#0"/>
    </person>
    <person id="74" depart="59.20">
        <walk from="141058765#1" to="141058765#1"/>
    </person>
    <person id="75" depart="60.00">
        <walk from="25188983#0" to="25188983#0"/>
    </person>
    <person id="76" depart="60.80">
        <walk from="-266887590#0" to="4268816#1"/>
    </person>
    <person id="77" depart="61.60">
        <walk from="354967544#1.11" to="354967544#1.11"/>
    </person>
    <person id="78" depart="62.40">
        <walk from="4268816#1" to="25188983#0"/>
    </person>
    <person id="79" depart="63.20">
        <walk from="-266887590#0" to="-25188983#0"/>
    </person>
    <person id="80" depart="64.00">
        <walk from="141058765#1" to="354967544#1.11"/>
    </person>
    <person id="81" depart="64.80">
        <walk from="266887590#0" to="4268816#1"/>
    </person>
    <person id="82" depart="65.60">
        <walk from="354967544#1.11" to="354967544#1.11"/>
    </person>
    <person id="83" depart="66.40">
        <walk from="141058765#1" to="-25188983#0"/>
    </person>
    <person id="84" depart="67.20">
        <walk from="141058765#1" to="-266887590#0"/>
    </person>
    <person id="85" depart="68.00">
        <walk from="25188983#0" to="141058765#1"/>
    </person>
    <person id="86" depart="68.80">
        <walk from="-266887590#0" to="354967545#0.45"/>
    </person>
    <person id="87" depart="69.60">
        <walk from="354967544#1.11" to="-266887590#0"/>
    </person>
    <person id="88" depart="70.40">
        <walk from="-266887590#0" to="-266887590#0"/>
    </person>
    <person id="89" depart="71.20">
        <walk from="141058765#1" to="-266887590#0"/>
    </person>
    <person id="90" depart="72.00">
        <walk from="25188983#0" to="4268816#1"/>
    </person>
    <person id="91" depart="72.80">
        <walk from="-25188983#0" to="354967545#0.45"/>
    </person>
    <person id="92" depart="73.60">
        <walk from="25188983#0" to="4268816#1"/>
    </person>
    <person id="93" depart="74.40">
        <walk from="141058765#1" to="-266887590#0"/>
    </person>
    <person id="94" depart="75.20">
        <walk from="4268816#1" to="266887590#0"/>
    </person>
    <person id="95" depart="76.00">
        <walk from="141058765#1" to="354967545#0.45"/>
    </person>
    <person id="96" depart="76.80">
        <walk from="-25188983#0" to="354967544#1.11"/>
    </person>
    <person id="97" depart="77.60">
        <walk from="-25188983#0" to="354967544#1.11"/>
    </person>
    <person id="98" depart="78.40">
        <walk from="25188983#0" to="141058765#1"/>
    </person>
    <person id="99" depart="79.20">
        <walk from="-25188983#0" to="354967545#0.45"/>
    </person>
    <person id="100" depart="80.00">
        <walk from="-266887590#0" to="-266887590#0"/>
    </person>
    <person id="101" depart="80.80">
        <walk from="4268816#1" to="-25188983#0"/>
    </person>
    <person id="102" depart="81.60">
        <walk from="25188983#0" to="354967545#0.45"/>
    </person>
    <person id="103" depart="82.40">
        <walk from="4268816#1" to="25188983#0"/>
    </person>
    <person id="104" depart="83.20">
        <walk from="266887590#0" to="4268816#1"/>
    </person>
    <person id="105" depart="84.00">
        <walk from="354967544#1.11" to="266887590#0"/>
    </person>
    <person id="106" depart="84.80">
        <walk from="25188983#0" to="141058765#1"/>
    </person>
    <person id="107" depart="85.60">
        <walk from="354967545#0.45" to="4268816#1"/>
    </person>
    <person id="108" depart="86.40">
        <walk from="-266887590#0" to="-25188983#0"/>
    </person>
    <person id="109" depart="87.20">
        <walk from="25188983#0" to="266887590#0"/>
    </person>
    <person id="110" depart="88.00">
        <walk from="354967545#0.45" to="25188983#0"/>
    </person>
    <person id="111" depart="88.80">
        <walk from="4268816#1" to="25188983#0"/>
    </person>
    <person id="112" depart="89.60">
        <walk from="354967545#0.45" to="141058765#1"/>
    </person>
    <person id="113" depart="90.40">
        <walk from="-266887590#0" to="25188983#0"/>
    </person>
    <person id="114" depart="91.20">
        <walk from="354967544#1.11" to="266887590#0"/>
    </person>
    <person id="115" depart="92.00">
        <walk from="354967544#1.11" to="266887590#0"/>
    </person>
    <person id="116" depart="92.80">
        <walk from="354967545#0.45" to="354967545#0.45"/>
    </person>
    <person id="117" depart="93.60">
        <walk from="-25188983#0" to="-25188983#0"/>
    </person>
    <person id="118" depart="94.40">
        <walk from="-25188983#0" to="25188983#0"/>
    </person>
    <person id="119" depart="95.20">
        <walk from="354967544#1.11" to="-25188983#0"/>
    </person>
    <person id="120" depart="96.00">
        <walk from="354967544#1.11" to="-25188983#0"/>
    </person>
    <person id="121" depart="96.80">
        <walk from="266887590#0" to="354967544#1.11"/>
    </person>
    <person id="122" depart="97.60">
        <walk from="4268816#1" to="266887590#0"/>
    </person>
    <person id="123" depart="98.40">
        <walk from="266887590#0" to="-266887590#0"/>
    </person>
    <person id="124" depart="99.20">
        <walk from="4268816#1" to="4268816#1"/>
    </person>
    <person id="125" depart="100.00">
        <walk from="354967545#0.45" to="354967544#1.11"/>
    </person>
    <person id="126" depart="100.80">
        <walk from="266887590#0" to="-266887590#0"/>
    </person>
    <person id="127" depart="101.60">
        <walk from="354967545#0.45" to="266887590#0"/>
    </person>
    <person id="128" depart="102.40">
        <walk from="4268816#1" to="354967545#0.45"/>
    </person>
    <person id="129" depart="103.20">
        <walk from="354967545#0.45" to="4268816#1"/>
    </person>
    <person id="130" depart="104.00">
        <walk from="25188983#0" to="-266887590#0"/>
    </person>
    <person id="131" depart="104.80">
        <walk from="-25188983#0" to="141058765#1"/>
    </person>
    <person id="132" depart="105.60">
        <walk from="141058765#1" to="4268816#1"/>
    </person>
    <person id="133" depart="106.40">
        <walk from="266887590#0" to="-25188983#0"/>
    </person>
    <person id="134" depart="107.20">
        <walk from="141058765#1" to="-266887590#0"/>
    </person>
    <person id="135" depart="108.00">
        <walk from="-25188983#0" to="-266887590#0"/>
    </person>
    <person id="136" depart="108.80">
        <walk from="-266887590#0" to="141058765#1"/>
    </person>
    <person id="137" depart="109.60">
        <walk from="354967544#1.11" to="-25188983#0"/>
    </person>
    <person id="138" depart="110.40">
        <walk from="354967545#0.45" to="354967544#1.11"/>
    </person>
    <person id="139" depart="111.20">
        <walk from="141058765#1" to="266887590#0"/>
    </person>
    <person id="140" depart="112.00">
        <walk from="25188983#0" to="25188983#0"/>
    </person>
    <person id="141" depart="112.80">
        <walk from="266887590#0" to="354967545#0.45"/>
    </person>
    <person id="142" depart="113.60">
        <walk from="354967544#1.11" to="266887590#0"/>
    </person>
    <person id="143" depart="114.40">
        <walk from="-266887590#0" to="-25188983#0"/>
    </person>
    <person id="144" depart="115.20">
        <walk from="-25188983#0" to="354967544#1.11"/>
    </person>
    <person id="145" depart="116.00">
        <walk from="4268816#1" to="141058765#1"/>
    </person>
    <person id="146" depart="116.80">
        <walk from="-266887590#0" to="354967544#1.11"/>
    </person>
    <person id="147" depart="117.60">
        <walk from="25188983#0" to="-25188983#0"/>
    </person>
    <person id="148" depart="118.40">
        <walk from="354967545#0.45" to="354967544#1.11"/>
    </person>
    <person id="149" depart="119.20">
        <walk from="-266887590#0" to="4268816#1"/>
    </person>
    <person id="150" depart="120.00">
        <walk from="25188983#0" to="354967545#0.45"/>
    </person>
    <person id="151" depart="120.80">
        <walk from="354967544#1.11" to="4268816#1"/>
    </person>
    <person id="152" depart="121.60">
        <walk from="4268816#1" to="266887590#0"/>
    </person>
    <person id="153" depart="122.40">
        <walk from="-266887590#0" to="141058765#1"/>
    </person>
    <person id="154" depart="123.20">
        <walk from="-266887590#0" to="141058765#1"/>
    </person>
    <person id="155" depart="124.00">
        <walk from="354967544#1.11" to="354967544#1.11"/>
    </person>
    <person id="156" depart="124.80">
        <walk from="354967545#0.45" to="-25188983#0"/>
    </person>
    <person id="157" depart="125.60">
        <walk from="25188983#0" to="25188983#0"/>
    </person>
    <person id="158" depart="126.40">
        <walk from="141058765#1" to="25188983#0"/>
    </person>
    <person id="159" depart="127.20">
        <walk from="4268816#1" to="4268816#1"/>
    </person>
    <person id="160" depart="128.00">
        <walk from="-266887590#0" to="354967544#1.11"/>
    </person>
    <person id="161" depart="128.80">
        <walk from="354967545#0.45" to="-25188983#0"/>
    </person>
    <person id="162" depart="129.60">
        <walk from="266887590#0" to="141058765#1"/>
    </person>
    <person id="163" depart="130.40">
        <walk from="4268816#1" to="141058765#1"/>
    </person>
    <person id="164" depart="131.20">
        <walk from="354967545#0.45" to="266887590#0"/>
    </person>
    <person id="165" depart="132.00">
        <walk from="266887590#0" to="-25188983#0"/>
    </person>
    <person id="166" depart="132.80">
        <walk from="354967544#1.11" to="354967544#1.11"/>
    </person>
    <person id="167" depart="133.60">
        <walk from="-25188983#0" to="141058765#1"/>
    </person>
    <person id="168" depart="134.40">
        <walk from="354967545#0.45" to="25188983#0"/>
    </person>
    <person id="169" depart="135.20">
        <walk from="25188983#0" to="354967544#1.11"/>
    </person>
    <person id="170" depart="136.00">
        <walk from="141058765#1" to="354967545#0.45"/>
    </person>
    <person id="171" depart="136.80">
        <walk from="354967544#1.11" to="25188983#0"/>
    </person>
    <person id="172" depart="137.60">
        <walk from="-266887590#0" to="266887590#0"/>
    </person>
    <person id="173" depart="138.40">
        <walk from="354967545#0.45" to="354967545#0.45"/>
    </person>
    <person id="174" depart="139.20">
        <walk from="-25188983#0" to="354967544#1.11"/>
    </person>
    <person id="175" depart="140.00">
        <walk from="-25188983#0" to="25188983#0"/>
    </person>
    <person id="176" depart="140.80">
        <walk from="141058765#1" to="266887590#0"/>
    </person>
    <person id="177" depart="141.60">
        <walk from="-266887590#0" to="354967545#0.45"/>
    </person>
    <person id="178" depart="142.40">
        <walk from="25188983#0" to="141058765#1"/>
    </person>
    <person id="179" depart="143.20">
        <walk from="141058765#1" to="-266887590#0"/>
    </person>
    <person id="180" depart="144.00">
        <walk from="4268816#1" to="4268816#1"/>
    </person>
    <person id="181" depart="144.80">
        <walk from="4268816#1" to="354967545#0.45"/>
    </person>
    <person id="182" depart="145.60">
        <walk from="266887590#0" to="-266887590#0"/>
    </person>
    <person id="183" depart="146.40">
        <walk from="266887590#0" to="-25188983#0"/>
    </person>
    <person id="184" depart="147.20">
        <walk from="-25188983#0" to="266887590#0"/>
    </person>
    <person id="185" depart="148.00">
        <walk from="354967545#0.45" to="266887590#0"/>
    </person>
    <person id="186" depart="148.80">
        <walk from="266887590#0" to="-25188983#0"/>
    </person>
    <person id="187" depart="149.60">
        <walk from="4268816#1" to="4268816#1"/>
    </person>
    <person id="188" depart="150.40">
        <walk from="4268816#1" to="4268816#1"/>
    </person>
    <person id="189" depart="151.20">
        <walk from="141058765#1" to="-266887590#0"/>
    </person>
    <person id="190" depart="152.00">
        <walk from="141058765#1" to="141058765#1"/>
    </person>
    <person id="191" depart="152.80">
        <walk from="266887590#0" to="354967545#0.45"/>
    </person>
    <person id="192" depart="153.60">
        <walk from="141058765#1" to="4268816#1"/>
    </person>
    <person id="193" depart="154.40">
        <walk from="354967544#1.11" to="-266887590#0"/>
    </person>
    <person id="194" depart="155.20">
        <walk from="4268816#1" to="4268816#1"/>
    </person>
    <person id="195" depart="156.00">
        <walk from="-25188983#0" to="25188983#0"/>
    </person>
    <person id="196" depart="156.80">
        <walk from="354967545#0.45" to="354967544#1.11"/>
    </person>
    <person id="197" depart="157.60">
        <walk from="-266887590#0" to="266887590#0"/>
    </person>
    <person id="198" depart="158.40">
        <walk from="-25188983#0" to="266887590#0"/>
    </person>
    <person id="199" depart="159.20">
        <walk from="-25188983#0" to="354967545#0.45"/>
    </person>
    <person id="200" depart="160.00">
        <walk from="141058765#1" to="266887590#0"/>
    </person>
    <person id="201" depart="160.80">
        <walk from="141058765#1" to="354967545#0.45"/>
    </person>
    <person id="202" depart="161.60">
        <walk from="354967544#1.11" to="266887590#0"/>
    </person>
    <person id="203" depart="162.40">
        <walk from="141058765#1" to="25188983#0"/>
    </person>
    <person id="204" depart="163.20">
        <walk from="4268816#1" to="-25188983#0"/>
    </person>
    <person id="205" depart="164.00">
        <walk from="354967545#0.45" to="266887590#0"/>
    </person>
    <person id="206" depart="164.80">
        <walk from="354967545#0.45" to="-266887590#0"/>
    </person>
    <person id="207" depart="165.60">
        <walk from="-25188983#0" to="141058765#1"/>
    </person>
    <person id="208" depart="166.40">
        <walk from="141058765#1" to="-266887590#0"/>
    </person>
    <person id="209" depart="167.20">
        <walk from="-266887590#0" to="4268816#1"/>
    </person>
    <person id="210" depart="168.00">
        <walk from="-266887590#0" to="141058765#1"/>
    </person>
    <person id="211" depart="168.80">
        <walk from="354967545#0.45" to="266887590#0"/>
    </person>
    <person id="212" depart="169.60">
        <walk from="141058765#1" to="4268816#1"/>
    </person>
    <person id="213" depart="170.40">
        <walk from="354967545#0.45" to="354967545#0.45"/>
    </person>
    <person id="214" depart="171.20">
        <walk from="25188983#0" to="354967544#1.11"/>
    </person>
    <person id="215" depart="172.00">
        <walk from="266887590#0" to="25188983#0"/>
    </person>
    <person id="216" depart="172.80">
        <walk from="25188983#0" to="-266887590#0"/>
    </person>
    <person id="217" depart="173.60">
        <walk from="-266887590#0" to="4268816#1"/>
    </person>
    <person id="218" depart="174.40">
        <walk from="25188983#0" to="4268816#1"/>
    </person>
    <person id="219" depart="175.20">
        <walk from="-25188983#0" to="25188983#0"/>
    </person>
    <person id="220" depart="176.00">
        <walk from="4268816#1" to="4268816#1"/>
    </person>
    <person id="221" depart="176.80">
        <walk from="266887590#0" to="25188983#0"/>
    </person>
    <person id="222" depart="177.60">
        <walk from="354967545#0.45" to="354967544#1.11"/>
    </person>
    <person id="223" depart="178.40">
        <walk from="-266887590#0" to="354967544#1.11"/>
    </person>
    <person id="224" depart="179.20">
        <walk from="25188983#0" to="4268816#1"/>
    </person>
    <person id="225" depart="180.00">
        <walk from="-25188983#0" to="266887590#0"/>
    </person>
    <person id="226" depart="180.80">
        <walk from="-25188983#0" to="354967545#0.45"/>
    </person>
    <person id="227" depart="181.60">
        <walk from="354967545#0.45" to="354967544#1.11"/>
    </person>
    <person id="228" depart="182.40">
        <walk from="354967545#0.45" to="25188983#0"/>
    </person>
    <person id="229" depart="183.20">
        <walk from="-266887590#0" to="141058765#1"/>
    </person>
    <person id="230" depart="184.00">
        <walk from="266887590#0" to="4268816#1"/>
    </person>
    <person id="231" depart="184.80">
        <walk from="354967544#1.11" to="141058765#1"/>
    </person>
    <person id="232" depart="185.60">
        <walk from="354967545#0.45" to="25188983#0"/>
    </person>
    <person id="233" depart="186.40">
        <walk from="354967544#1.11" to="4268816#1"/>
    </person>
    <person id="234" depart="187.20">
        <walk from="141058765#1" to="4268816#1"/>
    </person>
    <person id="235" depart="188.00">
        <walk from="354967544#1.11" to="354967545#0.45"/>
    </person>
    <person id="236" depart="188.80">
        <walk from="354967544#1.11" to="354967545#0.45"/>
    </person>
    <person id="237" depart="189.60">
        <walk from="-25188983#0" to="-266887590#0"/>
    </person>
    <person id="238" depart="190.40">
        <walk from="354967545#0.45" to="4268816#1"/>
    </person>
    <person id="239" depart="191.20">
        <walk from="354967544#1.11" to="25188983#0"/>
    </person>
    <person id="240" depart="192.00">
        <walk from="354967544#1.11" to="141058765#1"/>
    </person>
    <person id="241" depart="192.80">
        <walk from="354967544#1.11" to="354967544#1.11"/>
    </person>
    <person id="242" depart="193.60">
        <walk from="141058765#1" to="-266887590#0"/>
    </person>
    <person id="243" depart="194.40">
        <walk from="4268816#1" to="4268816#1"/>
    </person>
    <person id="244" depart="195.20">
        <walk from="4268816#1" to="354967544#1.11"/>
    </person>
    <person id="245" depart="196.00">
        <walk from="25188983#0" to="266887590#0"/>
    </person>
    <person id="246" depart="196.80">
        <walk from="-266887590#0" to="4268816#1"/>
    </person>
    <person id="247" depart="197.60">
        <walk from="266887590#0" to="25188983#0"/>
    </person>
    <person id="248" depart="198.40">
        <walk from="4268816#1" to="-266887590#0"/>
    </person>
    <person id="249" depart="199.20">
        <walk from="266887590#0" to="266887590#0"/>
    </person>
    <person id="250" depart="200.00">
        <walk from="-266887590#0" to="141058765#1"/>
    </person>
    <person id="251" depart="200.80">
        <walk from="354967545#0.45" to="25188983#0"/>
    </person>
    <person id="252" depart="201.60">
        <walk from="354967544#1.11" to="-266887590#0"/>
    </person>
    <person id="253" depart="202.40">
        <walk from="4268816#1" to="-266887590#0"/>
    </person>
    <person id="254" depart="203.20">
        <walk from="141058765#1" to="25188983#0"/>
    </person>
    <person id="255" depart="204.00">
        <walk from="354967544#1.11" to="-25188983#0"/>
    </person>
    <person id="256" depart="204.80">
        <walk from="-25188983#0" to="25188983#0"/>
    </person>
    <person id="257" depart="205.60">
        <walk from="141058765#1" to="141058765#1"/>
    </person>
    <person id="258" depart="206.40">
        <walk from="4268816#1" to="354967545#0.45"/>
    </person>
    <person id="259" depart="207.20">
        <walk from="266887590#0" to="-266887590#0"/>
    </person>
    <person id="260" depart="208.00">
        <walk from="-266887590#0" to="266887590#0"/>
    </person>
    <person id="261" depart="208.80">
        <walk from="141058765#1" to="25188983#0"/>
    </person>
    <person id="262" depart="209.60">
        <walk from="25188983#0" to="354967544#1.11"/>
    </person>
    <person id="263" depart="210.40">
        <walk from="266887590#0" to="25188983#0"/>
    </person>
    <person id="264" depart="211.20">
        <walk from="4268816#1" to="-25188983#0"/>
    </person>
    <person id="265" depart="212.00">
        <walk from="-266887590#0" to="4268816#1"/>
    </person>
    <person id="266" depart="212.80">
        <walk from="-266887590#0" to="-266887590#0"/>
    </person>
    <person id="267" depart="213.60">
        <walk from="354967545#0.45" to="-266887590#0"/>
    </person>
    <person id="268" depart="214.40">
        <walk from="354967545#0.45" to="141058765#1"/>
    </person>
    <person id="269" depart="215.20">
        <walk from="141058765#1" to="354967544#1.11"/>
    </person>
    <person id="270" depart="216.00">
        <walk from="-25188983#0" to="141058765#1"/>
    </person>
    <person id="271" depart="216.80">
        <walk from="-266887590#0" to="-266887590#0"/>
    </person>
    <person id="272" depart="217.60">
        <walk from="4268816#1" to="354967544#1.11"/>
    </person>
    <person id="273" depart="218.40">
        <walk from="25188983#0" to="25188983#0"/>
    </person>
    <person id="274" depart="219.20">
        <walk from="25188983#0" to="-266887590#0"/>
    </person>
    <person id="275" depart="220.00">
        <walk from="25188983#0" to="4268816#1"/>
    </person>
    <person id="276" depart="220.80">
        <walk from="354967544#1.11" to="354967544#1.11"/>
    </person>
    <person id="277" depart="221.60">
        <walk from="266887590#0" to="354967545#0.45"/>
    </person>
    <person id="278" depart="222.40">
        <walk from="4268816#1" to="354967544#1.11"/>
    </person>
    <person id="279" depart="223.20">
        <walk from="141058765#1" to="4268816#1"/>
    </person>
    <person id="280" depart="224.00">
        <walk from="354967545#0.45" to="354967544#1.11"/>
    </person>
    <person id="281" depart="224.80">
        <walk from="266887590#0" to="141058765#1"/>
    </person>
    <person id="282" depart="225.60">
        <walk from="354967545#0.45" to="266887590#0"/>
    </person>
    <person id="283" depart="226.40">
        <walk from="266887590#0" to="-266887590#0"/>
    </person>