<?xml version="1.0" encoding="UTF-8"?>

<!-- generated on 2021-11-15 15:45:22 by Eclipse SUMO netedit Version 1.10.0
<configuration xmlns:xsi="http://www.w3.org/2001/XMLSchema-instance" xsi:noNamespaceSchemaLocation="http://sumo.dlr.de/xsd/netconvertConfiguration.xsd">

    <input>
        <sumo-net-file value="InTAS_Crossing.net.xml"/>
    </input>

    <output>
        <output-file value="InTAS_Crossing.net.xml"/>
    </output>

    <processing>
        <geometry.min-radius.fix.railways value="false"/>
        <geometry.max-grade.fix value="false"/>
        <offset.disable-normalization value="true"/>
        <lefthand value="false"/>
    </processing>

    <junctions>
        <no-internal-links value="false"/>
        <no-turnarounds value="true"/>
        <junctions.corner-detail value="5"/>
        <junctions.limit-turn-speed value="5.5"/>
        <rectangular-lane-cut value="false"/>
    </junctions>

    <pedestrian>
        <walkingareas value="false"/>
    </pedestrian>

    <netedit>
        <additional-files value="/home/lobo/Repository/InTAS_VAM/SaturnArena_flow.add.xml"/>
    </netedit>

    <report>
        <aggregate-warnings value="5"/>
    </report>

</configuration>
-->

<additional xmlns:xsi="http://www.w3.org/2001/XMLSchema-instance" xsi:noNamespaceSchemaLocation="http://sumo.dlr.de/xsd/additional_file.xsd">
    <e1Detector id="SaturnArena1" lane="354967544#1.11_1" pos="25.70" freq="900.00" file="SaturnArena_Simulation.xml" friendlyPos="1"/>
    <e1Detector id="SaturnArena12" lane="354967545#0.45_1" pos="33.16" freq="900.00" file="SaturnArena_Simulation.xml" friendlyPos="1"/>
    <e1Detector id="SaturnArena13" lane="354967545#0.45_2" pos="33.41" freq="900.00" file="SaturnArena_Simulation.xml" friendlyPos="1"/>
    <e1Detector id="SaturnArena14" lane="354967545#0.45_3" pos="33.08" freq="900.00" file="SaturnArena_Simulation.xml" friendlyPos="1"/>
    <e1Detector id="SaturnArena15" lane="354967545#0.45_4" pos="33.97" freq="900.00" file="SaturnArena_Simulation.xml" friendlyPos="1"/>
    <e1Detector id="SaturnArena18" lane="266887590#0_1" pos="58.31" freq="900.00" file="SaturnArena_Simulation.xml" friendlyPos="1"/>
    <e1Detector id="SaturnArena19" lane="266887590#0_2" pos="58.55" freq="900.00" file="SaturnArena_Simulation.xml" friendlyPos="1"/>
    <e1Detector id="SaturnArena2" lane="354967544#1.11_2" pos="25.55" freq="900.00" file="SaturnArena_Simulation.xml" friendlyPos="1"/>
    <e1Detector id="SaturnArena20" lane="266887590#0_3" pos="58.54" freq="900.00" file="SaturnArena_Simulation.xml" friendlyPos="1"/>
    <e1Detector id="SaturnArena3" lane="354967544#1.11_3" pos="25.44" freq="900.00" file="SaturnArena_Simulation.xml" friendlyPos="1"/>
    <e1Detector id="SaturnArena4" lane="354967544#1.11_4" pos="25.44" freq="900.00" file="SaturnArena_Simulation.xml" friendlyPos="1"/>
    <e1Detector id="SaturnArena7" lane="25188983#0_1" pos="33.95" freq="900.00" file="SaturnArena_Simulation.xml" friendlyPos="1"/>
    <e1Detector id="SaturnArena8" lane="25188983#0_2" pos="33.94" freq="900.00" file="SaturnArena_Simulation.xml" friendlyPos="1"/>
    <e1Detector id="SaturnArena9" lane="25188983#0_3" pos="34.05" freq="900.00" file="SaturnArena_Simulation.xml" friendlyPos="1"/>
</additional>
